/*--------------------------------*- C++ -*----------------------------------*\
| =========                 |                                                 |
| \\      /  F ield         | OpenFOAM: The Open Source CFD Toolbox           |
|  \\    /   O peration     | Version:  1.7.1                                 |
|   \\  /    A nd           | Web:      www.OpenFOAM.com                      |
|    \\/     M anipulation  |                                                 |
\*---------------------------------------------------------------------------*/
FoamFile
{
    version     2.0;
    format      ascii;
    class       dictionary;
    object      blockMeshDict;
}
// * * * * * * * * * * * * * * * * * * * * * * * * * * * * * * * * * * * * * //

convertToMeters 1.0;

vertices
(
    (-5e-07 -5e-07 0.0)
    (5e-07 -5e-07 0.0)
    (5e-07 5e-07 0.0)
    (-5e-07 5e-07 0.0)
    (-5e-07 -5e-07 5e-08)
    (5e-07 -5e-07 5e-08)
    (5e-07 5e-07 5e-08)
    (-5e-07 5e-07 5e-08)
);

blocks
(
    hex (0 1 2 3 4 5 6 7) (300 200 20) simpleGrading (1 1 1)
);

edges
(
);

boundary
(
    walls
    {
        type wall;
        faces
        (
            (3 7 6 2)
            (0 4 7 3)
            (2 6 5 1)
            (1 5 4 0)
        );
    }
    inlet
    {
        type wall;
        faces
        (
            (0 3 2 1)
        );
    }
    outlet
    {
        type wall;
        faces
        (
            (4 5 6 7)
        );
    }
);

mergePatchPairs 
(
);

// ************************************************************************* //
